1 
  
H 0.0 0.0 0.0
1 
  
H 2.7930666559193833 2.7543274154449215 0.0
1 
  
H 5.586133311838767 5.431155830889843 0.0
1 
  
H 8.37919996775815 8.030485246334765 0.0
1 
  
H 11.172266623677533 10.552315661779685 0.0
1 
  
H 13.965333279596917 12.996647077224607 0.0
1 
  
H 16.7583999355163 15.363479492669528 0.0
1 
  
H 19.551466591435684 17.65281290811445 0.0
1 
  
H 22.344533247355063 19.864647323559367 0.0
1 
  
H 25.13759990327445 21.998982739004287 0.0
1 
  
H 27.930666559193828 24.055819154449207 0.0
1 
  
H 30.723733215113214 26.03515656989413 0.0
1 
  
H 33.5167998710326 27.93699498533905 0.0
1 
  
H 36.309866526951986 29.761334400783976 0.0
1 
  
H 39.102933182871375 31.508174816228895 0.0
1 
  
H 41.89599983879076 33.17751623167383 0.0
1 
  
H 44.68906649471015 34.76935864711874 0.0
1 
  
H 47.48213315062952 36.28370206256367 0.0
1 
  
H 50.27519980654891 37.720546478008586 0.0
1 
  
H 53.068266462468294 39.079891893453514 0.0
1 
  
H 55.86133311838768 40.36173830889843 0.0
1 
  
H 58.65439977430707 41.566085724343345 0.0
1 
  
H 61.44746643022645 42.69293413978828 0.0
1 
  
H 64.24053308614585 43.742283555233186 0.0
1 
  
H 67.03359974206522 44.71413397067811 0.0
1 
  
H 69.82666639798461 45.608485386123036 0.0
1 
  
H 72.619733053904 46.425337801567956 0.0
1 
  
H 75.41279970982337 47.16469121701288 0.0
1 
  
H 78.20586636574276 47.826545632457794 0.0
1 
  
H 80.99893302166215 48.41090104790272 0.0
1 
  
H 83.79199967758154 48.91775746334764 0.0
1 
  
H 86.58506633350092 49.34711487879257 0.0
1 
  
H 89.37813298942031 49.698973294237476 0.0
1 
  
H 92.1711996453397 49.973332709682396 0.0
1 
  
H 94.96426630125909 50.17019312512732 0.0
1 
  
H 97.75733295717846 50.28955454057224 0.0
1 
  
H 100.55039961309785 50.33141695601716 0.0
1 
  
H 103.34346626901724 50.29578037146209 0.0
1 
  
H 106.13653292493662 50.182644786907 0.0
1 
  
H 108.92959958085602 49.99201020235191 0.0
1 
  
H 111.72266623677538 49.72387661779684 0.0
1 
  
H 114.51573289269476 49.37824403324176 0.0
1 
  
H 117.30879954861415 48.95511244868668 0.0
1 
  
H 120.1018662045335 48.454481864131616 0.0
1 
  
H 122.89493286045288 47.87635227957654 0.0
1 
  
H 125.68799951637226 47.22072369502144 0.0
1 
  
H 128.4810661722916 46.48759611046637 0.0
1 
  
H 131.274132828211 45.676969525911296 0.0
1 
  
H 134.06719948413038 44.78884394135622 0.0
1 
  
H 136.86026614004973 43.823219356801154 0.0
1 
  
H 139.6533327959691 42.780095772246085 0.0
1 
  
H 142.4463994518885 41.65947318769098 0.0
1 
  
H 145.23946610780786 40.46135160313591 0.0
1 
  
H 148.03253276372723 39.185731018580846 0.0
1 
  
H 150.8255994196466 37.83261143402579 0.0
1 
  
H 153.61866607556598 36.4019928494707 0.0
1 
  
H 156.41173273148536 34.89387526491565 0.0
1 
  
H 159.20479938740473 33.30825868036055 0.0
1 
  
H 161.9978660433241 31.645143095805494 0.0
1 
  
H 164.79093269924348 29.904528511250422 0.0
1 
  
H 167.58399935516286 28.086414926695358 0.0
1 
  
H 170.37706601108223 26.1908023421403 0.0
1 
  
H 173.17013266700158 24.217690757585235 0.0
1 
  
H 175.96319932292099 22.167080173030154 0.0
1 
  
H 178.75626597884036 20.03897058847508 0.0
1 
  
H 181.5493326347597 17.833362003920023 0.0
1 
  
H 184.34239929067908 15.550254419364968 0.0
1 
  
H 187.1354659465985 13.18964783480988 0.0
1 
  
H 189.92853260251783 10.751542250254824 0.0
1 
  
H 192.7215992584372 8.235937665699755 0.0
1 
  
H 195.51466591435658 5.642834081144695 0.0
1 
  
H 198.30773257027596 2.9722314965896452 0.0
1 
  
H 201.10079922619533 0.22412991203458177 0.0
1 
  
1 
  
1 
  
1 
  
1 
  
1 
  
1 
  
1 
  
1 
  
1 
  
1 
  
1 
  
1 
  
1 
  
1 
  
1 
  
1 
  
1 
  
1 
  
1 
  
1 
  
1 
  
1 
  
1 
  
1 
  
1 
  
1 
  
1 
  
1 
  
1 
  
1 
  
1 
  
1 
  
1 
  
1 
  
1 
  
1 
  
1 
  
1 
  
1 
  
1 
  
1 
  
1 
  
1 
  
1 
  
1 
  
1 
  
1 
  
1 
  
1 
  
1 
  
1 
  
1 
  
1 
  
1 
  
1 
  
1 
  
1 
  
1 
  
1 
  
1 
  
1 
  
1 
  
1 
  
1 
  
1 
  
1 
  
1 
  
1 
  
1 
  
1 
  
1 
  
1 
  
1 
  
1 
  
1 
  
1 
  
1 
  
1 
  
1 
  
1 
  
1 
  
1 
  
1 
  
1 
  
1 
  
1 
  
1 
  
1 
  
1 
  
1 
  
1 
  
1 
  
1 
  
1 
  
1 
  
1 
  
1 
  
1 
  
1 
  
1 
  
1 
  
1 
  
1 
  
1 
  
1 
  
1 
  
1 
  
1 
  
1 
  
1 
  
1 
  
1 
  
1 
  
1 
  
1 
  
1 
  
1 
  
1 
  
1 
  
1 
  
1 
  
1 
  
1 
  
1 
  
1 
  
1 
  
1 
  
1 
  
1 
  
1 
  
1 
  
1 
  
1 
  
1 
  
1 
  
1 
  
1 
  
1 
  
1 
  
1 
  
1 
  
1 
  
1 
  
1 
  
1 
  
1 
  
1 
  
1 
  
1 
  
1 
  
1 
  
1 
  
1 
  
1 
  
1 
  
1 
  
1 
  
1 
  
1 
  
1 
  
1 
  
1 
  
1 
  
1 
  
1 
  
1 
  
1 
  
1 
  
1 
  
1 
  
1 
  
1 
  
1 
  
1 
  
1 
  
1 
  
1 
  
1 
  
1 
  
1 
  
1 
  
1 
  
1 
  
1 
  
1 
  
1 
  
1 
  
1 
  
1 
  
1 
  
1 
  
1 
  
1 
  
1 
  
1 
  
1 
  
1 
  
1 
  
1 
  
1 
  
1 
  
1 
  
1 
  
1 
  
1 
  
1 
  
1 
  
1 
  
1 
  
1 
  
1 
  
1 
  
1 
  
1 
  
1 
  
1 
  
1 
  
1 
  
1 
  
1 
  
1 
  
1 
  
1 
  
1 
  
1 
  
1 
  
1 
  
1 
  
1 
  
1 
  
1 
  
1 
  
1 
  
1 
  
1 
  
1 
  
1 
  
1 
  
1 
  
1 
  
1 
  
1 
  
1 
  
1 
  
1 
  
1 
  
1 
  
1 
  
1 
  
1 
  
1 
  
1 
  
1 
  
1 
  
1 
  
1 
  
1 
  
1 
  
1 
  
1 
  
1 
  
1 
  
1 
  
1 
  
1 
  
1 
  
1 
  
1 
  
1 
  
1 
  
1 
  
1 
  
1 
  
1 
  
1 
  
1 
  
1 
  
1 
  
1 
  
1 
  
1 
  
1 
  
1 
  
1 
  
1 
  
1 
  
1 
  
1 
  
1 
  
1 
  
1 
  
1 
  
1 
  
1 
  
1 
  
1 
  
1 
  
1 
  
1 
  
1 
  
1 
  
1 
  
1 
  
1 
  
1 
  
1 
  
1 
  
1 
  
1 
  
1 
  
1 
  
1 
  
1 
  
1 
  
1 
  
1 
  
1 
  
1 
  
1 
  
1 
  
1 
  
1 
  
1 
  
1 
  
1 
  
1 
  
1 
  
1 
  
1 
  
1 
  
1 
  
1 
  
1 
  
1 
  
1 
  
1 
  
1 
  
1 
  
1 
  
1 
  
1 
  
1 
  
1 
  
1 
  
1 
  
1 
  
1 
  
1 
  
1 
  
1 
  
1 
  
1 
  
1 
  
1 
  
1 
  
1 
  
1 
  
1 
  
1 
  
1 
  
1 
  
1 
  
1 
  
1 
  
1 
  
1 
  
1 
  
1 
  
1 
  
1 
  
1 
  
1 
  
1 
  
1 
  
1 
  
1 
  
1 
  
1 
  
1 
  
1 
  
1 
  
1 
  
1 
  
1 
  
1 
  
1 
  
1 
  
1 
  
1 
  
1 
  
1 
  
1 
  
1 
  
1 
  
1 
  
1 
  
1 
  
1 
  
1 
  
1 
  
1 
  
1 
  
1 
  
1 
  
1 
  
1 
  
1 
  
1 
  
1 
  
1 
  
1 
  
1 
  
1 
  
1 
  
1 
  
1 
  
1 
  
1 
  
1 
  
1 
  
1 
  
1 
  
1 
  
1 
  
1 
  
1 
  
1 
  
